/*--------------------------------*- C++ -*----------------------------------*\ 
| =========                 |                                                 | 
| \\      /  F ield         | OpenFOAM: The Open Source CFD Toolbox           | 
|  \\    /   O peration     | Version:  2.1.0                                 | 
|   \\  /    A nd           | Web:      www.OpenFOAM.com                      | 
|    \\/     M anipulation  |                                                 | 
\*---------------------------------------------------------------------------*/ 
FoamFile                                                                        
{                                                                               
    version     2.0;                                                            
    format      ascii;                                                          
    class       dictionary;                                                     
    object      blockMeshDict;                                                  
}                                                                               
// * * * * * * * * * * * * * * * * * * * * * * * * * * * * * * * * * * * * * // 

convertToMeters 1.000000; 

vertices 
( 
    (-7.522837 0.500000 1.599028)
    (0.309098 0.500000 8.000000)
    (0.978148 0.500000 8.000000)
    (12.000000 0.500000 8.000000)
    (0.000000 0.500000 0.000000)
    (0.309098 0.500000 0.026318)
    (0.271671 0.500000 -0.149765)
    (0.978148 0.500000 -0.207912)
    (12.000000 0.500000 -0.207912)
    (0.271671 0.500000 -8.000000)
    (0.978148 0.500000 -8.000000)
    (12.000000 0.500000 -8.000000)
    (-7.522837 -0.500000 1.599028)
    (0.309098 -0.500000 8.000000)
    (0.978148 -0.500000 8.000000)
    (12.000000 -0.500000 8.000000)
    (0.000000 -0.500000 0.000000)
    (0.309098 -0.500000 0.026318)
    (0.271671 -0.500000 -0.149765)
    (0.978148 -0.500000 -0.207912)
    (12.000000 -0.500000 -0.207912)
    (0.271671 -0.500000 -8.000000)
    (0.978148 -0.500000 -8.000000)
    (12.000000 -0.500000 -8.000000)
); 

blocks 
( 
    hex (4 5 1 0 16 17 13 12)     (16 30 1) edgeGrading (1 0.005000 0.005000 1 30.000000 30.000000 30.000000 30.000000 1 1 1 1) 
    hex (5 7 2 1 17 19 14 13)     (34 30 1) simpleGrading (1 30.000000 1) 
    hex (7 8 3 2 19 20 15 14)     (30 30 1) simpleGrading (90.000000 30.000000 1) 
    hex (16 18 21 12 4 6 9 0)     (16 30 1) edgeGrading (1 0.005000 0.005000 1 30.000000 30.000000 30.000000 30.000000 1 1 1 1) 
    hex (18 19 22 21 6 7 10 9)    (34 30 1) simpleGrading (1 30.000000 1) 
    hex (19 20 23 22 7 8 11 10)   (30 30 1) simpleGrading (90.000000 30.000000 1) 
); 

edges 
( 
    spline 4 5 
        ( 
            (0.000498 0.500000 0.002043) 
            (0.001115 0.500000 0.004047) 
            (0.001851 0.500000 0.006010) 
            (0.002705 0.500000 0.007933) 
            (0.003678 0.500000 0.009816) 
            (0.004769 0.500000 0.011658) 
            (0.005979 0.500000 0.013459) 
            (0.007306 0.500000 0.015219) 
            (0.008751 0.500000 0.016938) 
            (0.010313 0.500000 0.018615) 
            (0.011993 0.500000 0.020251) 
            (0.013788 0.500000 0.021844) 
            (0.015700 0.500000 0.023394) 
            (0.017727 0.500000 0.024902) 
            (0.019870 0.500000 0.026366) 
            (0.022127 0.500000 0.027787) 
            (0.024498 0.500000 0.029163) 
            (0.026982 0.500000 0.030496) 
            (0.029579 0.500000 0.031783) 
            (0.032288 0.500000 0.033025) 
            (0.035109 0.500000 0.034222) 
            (0.038040 0.500000 0.035373) 
            (0.041081 0.500000 0.036477) 
            (0.044232 0.500000 0.037535) 
            (0.047490 0.500000 0.038545) 
            (0.050857 0.500000 0.039508) 
            (0.054329 0.500000 0.040422) 
            (0.057908 0.500000 0.041288) 
            (0.061591 0.500000 0.042105) 
            (0.065378 0.500000 0.042873) 
            (0.069268 0.500000 0.043591) 
            (0.073259 0.500000 0.044259) 
            (0.077352 0.500000 0.044876) 
            (0.081544 0.500000 0.045443) 
            (0.085834 0.500000 0.045959) 
            (0.090222 0.500000 0.046423) 
            (0.094707 0.500000 0.046835) 
            (0.099287 0.500000 0.047195) 
            (0.103960 0.500000 0.047502) 
            (0.108727 0.500000 0.047757) 
            (0.113585 0.500000 0.047959) 
            (0.118533 0.500000 0.048107) 
            (0.123570 0.500000 0.048202) 
            (0.128695 0.500000 0.048244) 
            (0.133907 0.500000 0.048232) 
            (0.139204 0.500000 0.048165) 
            (0.144584 0.500000 0.048045) 
            (0.150047 0.500000 0.047871) 
            (0.155591 0.500000 0.047643) 
            (0.161214 0.500000 0.047360) 
            (0.166916 0.500000 0.047024) 
            (0.172695 0.500000 0.046633) 
            (0.178549 0.500000 0.046188) 
            (0.184476 0.500000 0.045689) 
            (0.190476 0.500000 0.045137) 
            (0.196548 0.500000 0.044530) 
            (0.202688 0.500000 0.043871) 
            (0.208896 0.500000 0.043158) 
            (0.215171 0.500000 0.042392) 
            (0.221510 0.500000 0.041573) 
            (0.227913 0.500000 0.040702) 
            (0.234378 0.500000 0.039778) 
            (0.240902 0.500000 0.038803) 
            (0.247485 0.500000 0.037777) 
            (0.254125 0.500000 0.036700) 
            (0.260820 0.500000 0.035573) 
            (0.267569 0.500000 0.034396) 
            (0.274370 0.500000 0.033169) 
            (0.281222 0.500000 0.031894) 
            (0.288122 0.500000 0.030571) 
            (0.295069 0.500000 0.029200) 
            (0.302062 0.500000 0.027782) 
        ) 
    spline 5 7 
        ( 
            (0.316177 0.500000 0.024809)
            (0.323296 0.500000 0.023255)
            (0.330454 0.500000 0.021657)
            (0.337648 0.500000 0.020015)
            (0.344878 0.500000 0.018331)
            (0.352142 0.500000 0.016606)
            (0.359437 0.500000 0.014840)
            (0.366763 0.500000 0.013034)
            (0.374117 0.500000 0.011189)
            (0.381497 0.500000 0.009306)
            (0.388903 0.500000 0.007386)
            (0.396332 0.500000 0.005429)
            (0.403782 0.500000 0.003438)
            (0.411251 0.500000 0.001412)
            (0.418739 0.500000 -0.000648)
            (0.426243 0.500000 -0.002739)
            (0.433761 0.500000 -0.004862)
            (0.441292 0.500000 -0.007016)
            (0.448833 0.500000 -0.009198)
            (0.456384 0.500000 -0.011409)
            (0.463941 0.500000 -0.013647)
            (0.471505 0.500000 -0.015911)
            (0.479072 0.500000 -0.018201)
            (0.486641 0.500000 -0.020514)
            (0.494210 0.500000 -0.022851)
            (0.501777 0.500000 -0.025209)
            (0.509341 0.500000 -0.027589)
            (0.516900 0.500000 -0.029988)
            (0.524452 0.500000 -0.032406)
            (0.531995 0.500000 -0.034841)
            (0.539527 0.500000 -0.037293)
            (0.547047 0.500000 -0.039761)
            (0.554553 0.500000 -0.042243)
            (0.562043 0.500000 -0.044739)
            (0.569515 0.500000 -0.047247)
            (0.576968 0.500000 -0.049766)
            (0.584400 0.500000 -0.052296)
            (0.591808 0.500000 -0.054835)
            (0.599192 0.500000 -0.057382)
            (0.606550 0.500000 -0.059936)
            (0.613879 0.500000 -0.062496)
            (0.621178 0.500000 -0.065062)
            (0.628446 0.500000 -0.067631)
            (0.635680 0.500000 -0.070204)
            (0.642879 0.500000 -0.072778)
            (0.650041 0.500000 -0.075354)
            (0.657164 0.500000 -0.077930)
            (0.664247 0.500000 -0.080504)
            (0.671288 0.500000 -0.083077)
            (0.678285 0.500000 -0.085647)
            (0.685237 0.500000 -0.088213)
            (0.692142 0.500000 -0.090775)
            (0.698998 0.500000 -0.093330)
            (0.705804 0.500000 -0.095879)
            (0.712558 0.500000 -0.098420)
            (0.719258 0.500000 -0.100953)
            (0.725904 0.500000 -0.103476)
            (0.732492 0.500000 -0.105988)
            (0.739022 0.500000 -0.108489)
            (0.745492 0.500000 -0.110978)
            (0.751901 0.500000 -0.113454)
            (0.758247 0.500000 -0.115915)
            (0.764528 0.500000 -0.118362)
            (0.770743 0.500000 -0.120793)
            (0.776890 0.500000 -0.123207)
            (0.782969 0.500000 -0.125603)
            (0.788977 0.500000 -0.127981)
            (0.794913 0.500000 -0.130339)
            (0.800776 0.500000 -0.132677)
            (0.806565 0.500000 -0.134994)
            (0.812277 0.500000 -0.137289)
            (0.817911 0.500000 -0.139561)
            (0.823467 0.500000 -0.141809)
            (0.828943 0.500000 -0.144033)
            (0.834337 0.500000 -0.146232)
            (0.839649 0.500000 -0.148404)
            (0.844876 0.500000 -0.150550)
            (0.850019 0.500000 -0.152667)
            (0.855074 0.500000 -0.154756)
            (0.860043 0.500000 -0.156816)
            (0.864922 0.500000 -0.158845)
            (0.869711 0.500000 -0.160843)
            (0.874410 0.500000 -0.162810)
            (0.879016 0.500000 -0.164744)
            (0.883529 0.500000 -0.166644)
            (0.887947 0.500000 -0.168511)
            (0.892270 0.500000 -0.170342)
            (0.896496 0.500000 -0.172138)
            (0.900626 0.500000 -0.173898)
            (0.904656 0.500000 -0.175620)
            (0.908588 0.500000 -0.177305)
            (0.912419 0.500000 -0.178951)
            (0.916149 0.500000 -0.180558)
            (0.919777 0.500000 -0.182125)
            (0.923302 0.500000 -0.183651)
            (0.926724 0.500000 -0.185137)
            (0.930041 0.500000 -0.186580)
            (0.933252 0.500000 -0.187981)
            (0.936358 0.500000 -0.189338)
            (0.939357 0.500000 -0.190652)
            (0.942249 0.500000 -0.191922)
            (0.945033 0.500000 -0.193146)
            (0.947707 0.500000 -0.194326)
            (0.950273 0.500000 -0.195459)
            (0.952729 0.500000 -0.196545)
            (0.955074 0.500000 -0.197585)
            (0.957308 0.500000 -0.198577)
            (0.959431 0.500000 -0.199521)
            (0.961442 0.500000 -0.200417)
            (0.963340 0.500000 -0.201264)
            (0.965126 0.500000 -0.202062)
            (0.966798 0.500000 -0.202810)
            (0.968356 0.500000 -0.203508)
            (0.969801 0.500000 -0.204155)
            (0.971131 0.500000 -0.204752)
            (0.972346 0.500000 -0.205298)
            (0.973447 0.500000 -0.205793)
            (0.974432 0.500000 -0.206237)
            (0.975302 0.500000 -0.206628)
            (0.976057 0.500000 -0.206968)
            (0.976695 0.500000 -0.207256)
            (0.977218 0.500000 -0.207492)
            (0.977625 0.500000 -0.207676)
            (0.977915 0.500000 -0.207807)
            (0.978089 0.500000 -0.207885)
        ) 
    spline 4 6 
        ( 
            (-0.000376 0.500000 -0.002069)
            (-0.000627 0.500000 -0.004150)
            (-0.000754 0.500000 -0.006243)
            (-0.000755 0.500000 -0.008347)
            (-0.000632 0.500000 -0.010463)
            (-0.000385 0.500000 -0.012590)
            (-0.000012 0.500000 -0.014727)
            (0.000484 0.500000 -0.016875)
            (0.001105 0.500000 -0.019033)
            (0.001850 0.500000 -0.021201)
            (0.002719 0.500000 -0.023378)
            (0.003712 0.500000 -0.025563)
            (0.004827 0.500000 -0.027757)
            (0.006066 0.500000 -0.029959)
            (0.007428 0.500000 -0.032168)
            (0.008912 0.500000 -0.034384)
            (0.010518 0.500000 -0.036606)
            (0.012245 0.500000 -0.038834)
            (0.014094 0.500000 -0.041066)
            (0.016064 0.500000 -0.043303)
            (0.018154 0.500000 -0.045544)
            (0.020364 0.500000 -0.047787)
            (0.022693 0.500000 -0.050033)
            (0.025141 0.500000 -0.052280)
            (0.027707 0.500000 -0.054529)
            (0.030391 0.500000 -0.056777)
            (0.033191 0.500000 -0.059025)
            (0.036108 0.500000 -0.061272)
            (0.039140 0.500000 -0.063516)
            (0.042288 0.500000 -0.065758)
            (0.045549 0.500000 -0.067996)
            (0.048924 0.500000 -0.070230)
            (0.052411 0.500000 -0.072458)
            (0.056010 0.500000 -0.074681)
            (0.059721 0.500000 -0.076897)
            (0.063541 0.500000 -0.079106)
            (0.067470 0.500000 -0.081306)
            (0.071507 0.500000 -0.083498)
            (0.075652 0.500000 -0.085680)
            (0.079902 0.500000 -0.087851)
            (0.084258 0.500000 -0.090011)
            (0.088718 0.500000 -0.092160)
            (0.093281 0.500000 -0.094295)
            (0.097947 0.500000 -0.096418)
            (0.102713 0.500000 -0.098527)
            (0.107578 0.500000 -0.100621)
            (0.112542 0.500000 -0.102699)
            (0.117604 0.500000 -0.104762)
            (0.122761 0.500000 -0.106808)
            (0.128014 0.500000 -0.108838)
            (0.133359 0.500000 -0.110849)
            (0.138797 0.500000 -0.112843)
            (0.144326 0.500000 -0.114817)
            (0.149944 0.500000 -0.116773)
            (0.155650 0.500000 -0.118708)
            (0.161443 0.500000 -0.120624)
            (0.167321 0.500000 -0.122518)
            (0.173282 0.500000 -0.124392)
            (0.179326 0.500000 -0.126245)
            (0.185451 0.500000 -0.128075)
            (0.191654 0.500000 -0.129883)
            (0.197935 0.500000 -0.131669)
            (0.204292 0.500000 -0.133432)
            (0.210724 0.500000 -0.135173)
            (0.217228 0.500000 -0.136889)
            (0.223802 0.500000 -0.138583)
            (0.230447 0.500000 -0.140252)
            (0.237159 0.500000 -0.141898)
            (0.243936 0.500000 -0.143520)
            (0.250778 0.500000 -0.145117)
            (0.257683 0.500000 -0.146691)
            (0.264647 0.500000 -0.148240)
        ) 
    spline 6 7 
        ( 
            (0.278751 0.500000 -0.151265)
            (0.285887 0.500000 -0.152741)
            (0.293076 0.500000 -0.154192)
            (0.300316 0.500000 -0.155619)
            (0.307606 0.500000 -0.157021)
            (0.314943 0.500000 -0.158399)
            (0.322326 0.500000 -0.159753)
            (0.329753 0.500000 -0.161083)
            (0.337222 0.500000 -0.162389)
            (0.344730 0.500000 -0.163670)
            (0.352276 0.500000 -0.164928)
            (0.359859 0.500000 -0.166163)
            (0.367475 0.500000 -0.167373)
            (0.375123 0.500000 -0.168561)
            (0.382801 0.500000 -0.169725)
            (0.390506 0.500000 -0.170866)
            (0.398238 0.500000 -0.171984)
            (0.405993 0.500000 -0.173080)
            (0.413771 0.500000 -0.174154)
            (0.421568 0.500000 -0.175205)
            (0.429382 0.500000 -0.176235)
            (0.437213 0.500000 -0.177242)
            (0.445057 0.500000 -0.178229)
            (0.452912 0.500000 -0.179194)
            (0.460777 0.500000 -0.180138)
            (0.468650 0.500000 -0.181061)
            (0.476527 0.500000 -0.181964)
            (0.484409 0.500000 -0.182847)
            (0.492291 0.500000 -0.183710)
            (0.500172 0.500000 -0.184553)
            (0.508051 0.500000 -0.185376)
            (0.515925 0.500000 -0.186181)
            (0.523791 0.500000 -0.186966)
            (0.531649 0.500000 -0.187732)
            (0.539495 0.500000 -0.188480)
            (0.547328 0.500000 -0.189210)
            (0.555146 0.500000 -0.189922)
            (0.562947 0.500000 -0.190616)
            (0.570729 0.500000 -0.191293)
            (0.578489 0.500000 -0.191952)
            (0.586226 0.500000 -0.192594)
            (0.593938 0.500000 -0.193219)
            (0.601622 0.500000 -0.193828)
            (0.609277 0.500000 -0.194420)
            (0.616900 0.500000 -0.194996)
            (0.624491 0.500000 -0.195556)
            (0.632046 0.500000 -0.196100)
            (0.639564 0.500000 -0.196629)
            (0.647043 0.500000 -0.197142)
            (0.654480 0.500000 -0.197641)
            (0.661875 0.500000 -0.198124)
            (0.669225 0.500000 -0.198593)
            (0.676528 0.500000 -0.199047)
            (0.683782 0.500000 -0.199487)
            (0.690985 0.500000 -0.199912)
            (0.698136 0.500000 -0.200324)
            (0.705233 0.500000 -0.200722)
            (0.712274 0.500000 -0.201106)
            (0.719257 0.500000 -0.201477)
            (0.726180 0.500000 -0.201835)
            (0.733042 0.500000 -0.202180)
            (0.739840 0.500000 -0.202513)
            (0.746573 0.500000 -0.202832)
            (0.753239 0.500000 -0.203140)
            (0.759837 0.500000 -0.203435)
            (0.766365 0.500000 -0.203718)
            (0.772821 0.500000 -0.203990)
            (0.779203 0.500000 -0.204250)
            (0.785510 0.500000 -0.204499)
            (0.791740 0.500000 -0.204736)
            (0.797892 0.500000 -0.204963)
            (0.803964 0.500000 -0.205179)
            (0.809954 0.500000 -0.205385)
            (0.815861 0.500000 -0.205580)
            (0.821683 0.500000 -0.205766)
            (0.827419 0.500000 -0.205942)
            (0.833067 0.500000 -0.206108)
            (0.838626 0.500000 -0.206265)
            (0.844094 0.500000 -0.206413)
            (0.849471 0.500000 -0.206552)
            (0.854754 0.500000 -0.206683)
            (0.859942 0.500000 -0.206806)
            (0.865034 0.500000 -0.206920)
            (0.870028 0.500000 -0.207027)
            (0.874924 0.500000 -0.207126)
            (0.879719 0.500000 -0.207218)
            (0.884414 0.500000 -0.207303)
            (0.889005 0.500000 -0.207382)
            (0.893493 0.500000 -0.207454)
            (0.897876 0.500000 -0.207520)
            (0.902153 0.500000 -0.207580)
            (0.906322 0.500000 -0.207634)
            (0.910383 0.500000 -0.207683)
            (0.914335 0.500000 -0.207728)
            (0.918176 0.500000 -0.207767)
            (0.921906 0.500000 -0.207802)
            (0.925523 0.500000 -0.207832)
            (0.929027 0.500000 -0.207859)
            (0.932417 0.500000 -0.207882)
            (0.935691 0.500000 -0.207902)
            (0.938849 0.500000 -0.207918)
            (0.941890 0.500000 -0.207931)
            (0.944813 0.500000 -0.207942)
            (0.947618 0.500000 -0.207950)
            (0.950303 0.500000 -0.207957)
            (0.952869 0.500000 -0.207961)
            (0.955313 0.500000 -0.207963)
            (0.957637 0.500000 -0.207964)
            (0.959838 0.500000 -0.207964)
            (0.961917 0.500000 -0.207962)
            (0.963872 0.500000 -0.207960)
            (0.965704 0.500000 -0.207956)
            (0.967412 0.500000 -0.207953)
            (0.968995 0.500000 -0.207949)
            (0.970453 0.500000 -0.207944)
            (0.971785 0.500000 -0.207940)
            (0.972992 0.500000 -0.207935)
            (0.974072 0.500000 -0.207931)
            (0.975026 0.500000 -0.207927)
            (0.975854 0.500000 -0.207923)
            (0.976554 0.500000 -0.207920)
            (0.977128 0.500000 -0.207917)
            (0.977574 0.500000 -0.207915)
            (0.977893 0.500000 -0.207913)
            (0.978084 0.500000 -0.207912)
        ) 
    spline 16 17 
        ( 
            (0.000498 -0.500000 0.002043)
            (0.001115 -0.500000 0.004047)
            (0.001851 -0.500000 0.006010)
            (0.002705 -0.500000 0.007933)
            (0.003678 -0.500000 0.009816)
            (0.004769 -0.500000 0.011658)
            (0.005979 -0.500000 0.013459)
            (0.007306 -0.500000 0.015219)
            (0.008751 -0.500000 0.016938)
            (0.010313 -0.500000 0.018615)
            (0.011993 -0.500000 0.020251)
            (0.013788 -0.500000 0.021844)
            (0.015700 -0.500000 0.023394)
            (0.017727 -0.500000 0.024902)
            (0.019870 -0.500000 0.026366)
            (0.022127 -0.500000 0.027787)
            (0.024498 -0.500000 0.029163)
            (0.026982 -0.500000 0.030496)
            (0.029579 -0.500000 0.031783)
            (0.032288 -0.500000 0.033025)
            (0.035109 -0.500000 0.034222)
            (0.038040 -0.500000 0.035373)
            (0.041081 -0.500000 0.036477)
            (0.044232 -0.500000 0.037535)
            (0.047490 -0.500000 0.038545)
            (0.050857 -0.500000 0.039508)
            (0.054329 -0.500000 0.040422)
            (0.057908 -0.500000 0.041288)
            (0.061591 -0.500000 0.042105)
            (0.065378 -0.500000 0.042873)
            (0.069268 -0.500000 0.043591)
            (0.073259 -0.500000 0.044259)
            (0.077352 -0.500000 0.044876)
            (0.081544 -0.500000 0.045443)
            (0.085834 -0.500000 0.045959)
            (0.090222 -0.500000 0.046423)
            (0.094707 -0.500000 0.046835)
            (0.099287 -0.500000 0.047195)
            (0.103960 -0.500000 0.047502)
            (0.108727 -0.500000 0.047757)
            (0.113585 -0.500000 0.047959)
            (0.118533 -0.500000 0.048107)
            (0.123570 -0.500000 0.048202)
            (0.128695 -0.500000 0.048244)
            (0.133907 -0.500000 0.048232)
            (0.139204 -0.500000 0.048165)
            (0.144584 -0.500000 0.048045)
            (0.150047 -0.500000 0.047871)
            (0.155591 -0.500000 0.047643)
            (0.161214 -0.500000 0.047360)
            (0.166916 -0.500000 0.047024)
            (0.172695 -0.500000 0.046633)
            (0.178549 -0.500000 0.046188)
            (0.184476 -0.500000 0.045689)
            (0.190476 -0.500000 0.045137)
            (0.196548 -0.500000 0.044530)
            (0.202688 -0.500000 0.043871)
            (0.208896 -0.500000 0.043158)
            (0.215171 -0.500000 0.042392)
            (0.221510 -0.500000 0.041573)
            (0.227913 -0.500000 0.040702)
            (0.234378 -0.500000 0.039778)
            (0.240902 -0.500000 0.038803)
            (0.247485 -0.500000 0.037777)
            (0.254125 -0.500000 0.036700)
            (0.260820 -0.500000 0.035573)
            (0.267569 -0.500000 0.034396)
            (0.274370 -0.500000 0.033169)
            (0.281222 -0.500000 0.031894)
            (0.288122 -0.500000 0.030571)
            (0.295069 -0.500000 0.029200)
            (0.302062 -0.500000 0.027782)
        ) 
    spline 17 19 
        ( 
            (0.316177 -0.500000 0.024809)
            (0.323296 -0.500000 0.023255)
            (0.330454 -0.500000 0.021657)
            (0.337648 -0.500000 0.020015)
            (0.344878 -0.500000 0.018331)
            (0.352142 -0.500000 0.016606)
            (0.359437 -0.500000 0.014840)
            (0.366763 -0.500000 0.013034)
            (0.374117 -0.500000 0.011189)
            (0.381497 -0.500000 0.009306)
            (0.388903 -0.500000 0.007386)
            (0.396332 -0.500000 0.005429)
            (0.403782 -0.500000 0.003438)
            (0.411251 -0.500000 0.001412)
            (0.418739 -0.500000 -0.000648)
            (0.426243 -0.500000 -0.002739)
            (0.433761 -0.500000 -0.004862)
            (0.441292 -0.500000 -0.007016)
            (0.448833 -0.500000 -0.009198)
            (0.456384 -0.500000 -0.011409)
            (0.463941 -0.500000 -0.013647)
            (0.471505 -0.500000 -0.015911)
            (0.479072 -0.500000 -0.018201)
            (0.486641 -0.500000 -0.020514)
            (0.494210 -0.500000 -0.022851)
            (0.501777 -0.500000 -0.025209)
            (0.509341 -0.500000 -0.027589)
            (0.516900 -0.500000 -0.029988)
            (0.524452 -0.500000 -0.032406)
            (0.531995 -0.500000 -0.034841)
            (0.539527 -0.500000 -0.037293)
            (0.547047 -0.500000 -0.039761)
            (0.554553 -0.500000 -0.042243)
            (0.562043 -0.500000 -0.044739)
            (0.569515 -0.500000 -0.047247)
            (0.576968 -0.500000 -0.049766)
            (0.584400 -0.500000 -0.052296)
            (0.591808 -0.500000 -0.054835)
            (0.599192 -0.500000 -0.057382)
            (0.606550 -0.500000 -0.059936)
            (0.613879 -0.500000 -0.062496)
            (0.621178 -0.500000 -0.065062)
            (0.628446 -0.500000 -0.067631)
            (0.635680 -0.500000 -0.070204)
            (0.642879 -0.500000 -0.072778)
            (0.650041 -0.500000 -0.075354)
            (0.657164 -0.500000 -0.077930)
            (0.664247 -0.500000 -0.080504)
            (0.671288 -0.500000 -0.083077)
            (0.678285 -0.500000 -0.085647)
            (0.685237 -0.500000 -0.088213)
            (0.692142 -0.500000 -0.090775)
            (0.698998 -0.500000 -0.093330)
            (0.705804 -0.500000 -0.095879)
            (0.712558 -0.500000 -0.098420)
            (0.719258 -0.500000 -0.100953)
            (0.725904 -0.500000 -0.103476)
            (0.732492 -0.500000 -0.105988)
            (0.739022 -0.500000 -0.108489)
            (0.745492 -0.500000 -0.110978)
            (0.751901 -0.500000 -0.113454)
            (0.758247 -0.500000 -0.115915)
            (0.764528 -0.500000 -0.118362)
            (0.770743 -0.500000 -0.120793)
            (0.776890 -0.500000 -0.123207)
            (0.782969 -0.500000 -0.125603)
            (0.788977 -0.500000 -0.127981)
            (0.794913 -0.500000 -0.130339)
            (0.800776 -0.500000 -0.132677)
            (0.806565 -0.500000 -0.134994)
            (0.812277 -0.500000 -0.137289)
            (0.817911 -0.500000 -0.139561)
            (0.823467 -0.500000 -0.141809)
            (0.828943 -0.500000 -0.144033)
            (0.834337 -0.500000 -0.146232)
            (0.839649 -0.500000 -0.148404)
            (0.844876 -0.500000 -0.150550)
            (0.850019 -0.500000 -0.152667)
            (0.855074 -0.500000 -0.154756)
            (0.860043 -0.500000 -0.156816)
            (0.864922 -0.500000 -0.158845)
            (0.869711 -0.500000 -0.160843)
            (0.874410 -0.500000 -0.162810)
            (0.879016 -0.500000 -0.164744)
            (0.883529 -0.500000 -0.166644)
            (0.887947 -0.500000 -0.168511)
            (0.892270 -0.500000 -0.170342)
            (0.896496 -0.500000 -0.172138)
            (0.900626 -0.500000 -0.173898)
            (0.904656 -0.500000 -0.175620)
            (0.908588 -0.500000 -0.177305)
            (0.912419 -0.500000 -0.178951)
            (0.916149 -0.500000 -0.180558)
            (0.919777 -0.500000 -0.182125)
            (0.923302 -0.500000 -0.183651)
            (0.926724 -0.500000 -0.185137)
            (0.930041 -0.500000 -0.186580)
            (0.933252 -0.500000 -0.187981)
            (0.936358 -0.500000 -0.189338)
            (0.939357 -0.500000 -0.190652)
            (0.942249 -0.500000 -0.191922)
            (0.945033 -0.500000 -0.193146)
            (0.947707 -0.500000 -0.194326)
            (0.950273 -0.500000 -0.195459)
            (0.952729 -0.500000 -0.196545)
            (0.955074 -0.500000 -0.197585)
            (0.957308 -0.500000 -0.198577)
            (0.959431 -0.500000 -0.199521)
            (0.961442 -0.500000 -0.200417)
            (0.963340 -0.500000 -0.201264)
            (0.965126 -0.500000 -0.202062)
            (0.966798 -0.500000 -0.202810)
            (0.968356 -0.500000 -0.203508)
            (0.969801 -0.500000 -0.204155)
            (0.971131 -0.500000 -0.204752)
            (0.972346 -0.500000 -0.205298)
            (0.973447 -0.500000 -0.205793)
            (0.974432 -0.500000 -0.206237)
            (0.975302 -0.500000 -0.206628)
            (0.976057 -0.500000 -0.206968)
            (0.976695 -0.500000 -0.207256)
            (0.977218 -0.500000 -0.207492)
            (0.977625 -0.500000 -0.207676)
            (0.977915 -0.500000 -0.207807)
            (0.978089 -0.500000 -0.207885)
        ) 
    spline 16 18 
        ( 
            (-0.000376 -0.500000 -0.002069)
            (-0.000627 -0.500000 -0.004150)
            (-0.000754 -0.500000 -0.006243)
            (-0.000755 -0.500000 -0.008347)
            (-0.000632 -0.500000 -0.010463)
            (-0.000385 -0.500000 -0.012590)
            (-0.000012 -0.500000 -0.014727)
            (0.000484 -0.500000 -0.016875)
            (0.001105 -0.500000 -0.019033)
            (0.001850 -0.500000 -0.021201)
            (0.002719 -0.500000 -0.023378)
            (0.003712 -0.500000 -0.025563)
            (0.004827 -0.500000 -0.027757)
            (0.006066 -0.500000 -0.029959)
            (0.007428 -0.500000 -0.032168)
            (0.008912 -0.500000 -0.034384)
            (0.010518 -0.500000 -0.036606)
            (0.012245 -0.500000 -0.038834)
            (0.014094 -0.500000 -0.041066)
            (0.016064 -0.500000 -0.043303)
            (0.018154 -0.500000 -0.045544)
            (0.020364 -0.500000 -0.047787)
            (0.022693 -0.500000 -0.050033)
            (0.025141 -0.500000 -0.052280)
            (0.027707 -0.500000 -0.054529)
            (0.030391 -0.500000 -0.056777)
            (0.033191 -0.500000 -0.059025)
            (0.036108 -0.500000 -0.061272)
            (0.039140 -0.500000 -0.063516)
            (0.042288 -0.500000 -0.065758)
            (0.045549 -0.500000 -0.067996)
            (0.048924 -0.500000 -0.070230)
            (0.052411 -0.500000 -0.072458)
            (0.056010 -0.500000 -0.074681)
            (0.059721 -0.500000 -0.076897)
            (0.063541 -0.500000 -0.079106)
            (0.067470 -0.500000 -0.081306)
            (0.071507 -0.500000 -0.083498)
            (0.075652 -0.500000 -0.085680)
            (0.079902 -0.500000 -0.087851)
            (0.084258 -0.500000 -0.090011)
            (0.088718 -0.500000 -0.092160)
            (0.093281 -0.500000 -0.094295)
            (0.097947 -0.500000 -0.096418)
            (0.102713 -0.500000 -0.098527)
            (0.107578 -0.500000 -0.100621)
            (0.112542 -0.500000 -0.102699)
            (0.117604 -0.500000 -0.104762)
            (0.122761 -0.500000 -0.106808)