/*--------------------------------*- C++ -*----------------------------------*\
| =========                 |                                                 |
| \\      /  F ield         | OpenFOAM: The Open Source CFD Toolbox           |
|  \\    /   O peration     | Version:  2.4.0                                 |
|   \\  /    A nd           | Web:      www.OpenFOAM.org                      |
|    \\/     M anipulation  |                                                 |
\*---------------------------------------------------------------------------*/
FoamFile
{
    version     2.0;
    format      ascii;
    class       dictionary;
    location    "system";
    object      controlDict;
}
// * * * * * * * * * * * * * * * * * * * * * * * * * * * * * * * * * * * * * //

application     pimpleFoam;

startFrom       latestTime;

startTime       0;

stopAt          endTime;

endTime         1.0;

deltaT          2e-3;

writeControl    runTime;

writeInterval   0.01;

purgeWrite      0;

writeFormat     ascii;

writePrecision  6;

writeCompression off;

timeFormat      general;

timePrecision   6;

runTimeModifiable true;

adjustTimeStep  yes;

maxCo           2.0;

functions
{
  #includeFunc            shearStress;
	forces
	{
		type forces;
		functionObjectLibs ("libforces.so");
		patches 	(airfoil);
		pName		p;
		Uname		U;
		rho		rhoInf;
		rhoInf		1.225;
		CofR		(0 0 0);
		outputControl	timeStep;
		outputInterval	10;
	}
#includeFunc fieldAverage(U, p, prime2Mean = yes)
	#includeFunc sampleDict
	#includeFunc yPlus

}


// ************************************************************************* //
